<?xml version="1.0" encoding="UTF-8"?>

<!-- generated on 2025-08-22 21:32:05.197841 by randomTrips.py UNKNOWN
<configuration>
    <net-file value="single1l.net.xml"/>
    <output-trip-file value="buses.trips.xml"/>
    <vtype-output value="bus"/>
    <prefix value="bus_"/>
    <edge-permission value="bus"/>
    <seed value="2"/>
    <min-distance value="80.0"/>
    <period value="8.0"/>
</configuration>
-->

<routes xmlns:xsi="http://www.w3.org/2001/XMLSchema-instance" xsi:noNamespaceSchemaLocation="http://sumo.dlr.de/xsd/routes_file.xsd">
    <trip id="bus_0" depart="0.00" from="C2B2" to="B2B3"/>
    <trip id="bus_1" depart="8.00" from="B3B2" to="B2B1"/>
    <trip id="bus_2" depart="16.00" from="B3B2" to="B2A2"/>
    <trip id="bus_3" depart="24.00" from="B3B2" to="B2C2"/>
    <trip id="bus_4" depart="32.00" from="C2B2" to="B2B3"/>
    <trip id="bus_5" depart="40.00" from="B1B2" to="B2C2"/>
    <trip id="bus_6" depart="48.00" from="B1B2" to="B2A2"/>
    <trip id="bus_7" depart="56.00" from="B3B2" to="B2C2"/>
    <trip id="bus_8" depart="64.00" from="B3B2" to="B2A2"/>
    <trip id="bus_9" depart="72.00" from="B3B2" to="B2C2"/>
    <trip id="bus_10" depart="80.00" from="B1B2" to="B2C2"/>
    <trip id="bus_11" depart="88.00" from="C2B2" to="B2A2"/>
    <trip id="bus_12" depart="96.00" from="C2B2" to="B2B3"/>
    <trip id="bus_13" depart="104.00" from="B1B2" to="B2B3"/>
    <trip id="bus_14" depart="112.00" from="B1B2" to="B2C2"/>
    <trip id="bus_15" depart="120.00" from="B3B2" to="B2C2"/>
    <trip id="bus_16" depart="128.00" from="B1B2" to="B2C2"/>
    <trip id="bus_17" depart="136.00" from="C2B2" to="B2B1"/>
    <trip id="bus_18" depart="144.00" from="B3B2" to="B2C2"/>
    <trip id="bus_19" depart="152.00" from="B3B2" to="B2B1"/>
    <trip id="bus_20" depart="160.00" from="A2B2" to="B2B1"/>
    <trip id="bus_21" depart="168.00" from="B3B2" to="B2A2"/>
    <trip id="bus_22" depart="176.00" from="C2B2" to="B2B1"/>
    <trip id="bus_23" depart="184.00" from="C2B2" to="B2B1"/>
    <trip id="bus_24" depart="192.00" from="C2B2" to="B2B3"/>
    <trip id="bus_25" depart="200.00" from="B1B2" to="B2A2"/>
    <trip id="bus_26" depart="208.00" from="B3B2" to="B2C2"/>
    <trip id="bus_27" depart="216.00" from="B3B2" to="B2A2"/>
    <trip id="bus_28" depart="224.00" from="C2B2" to="B2B3"/>
    <trip id="bus_29" depart="232.00" from="C2B2" to="B2A2"/>
    <trip id="bus_30" depart="240.00" from="B3B2" to="B2A2"/>
    <trip id="bus_31" depart="248.00" from="B3B2" to="B2B1"/>
    <trip id="bus_32" depart="256.00" from="A2B2" to="B2C2"/>
    <trip id="bus_33" depart="264.00" from="A2B2" to="B2B3"/>
    <trip id="bus_34" depart="272.00" from="C2B2" to="B2A2"/>
    <trip id="bus_35" depart="280.00" from="A2B2" to="B2C2"/>
    <trip id="bus_36" depart="288.00" from="B1B2" to="B2B3"/>
    <trip id="bus_37" depart="296.00" from="A2B2" to="B2B1"/>
    <trip id="bus_38" depart="304.00" from="A2B2" to="B2B3"/>
    <trip id="bus_39" depart="312.00" from="A2B2" to="B2C2"/>
    <trip id="bus_40" depart="320.00" from="A2B2" to="B2B3"/>
    <trip id="bus_41" depart="328.00" from="A2B2" to="B2B1"/>
    <trip id="bus_42" depart="336.00" from="C2B2" to="B2A2"/>
    <trip id="bus_43" depart="344.00" from="A2B2" to="B2B3"/>
    <trip id="bus_44" depart="352.00" from="B1B2" to="B2A2"/>
    <trip id="bus_45" depart="360.00" from="C2B2" to="B2A2"/>
    <trip id="bus_46" depart="368.00" from="A2B2" to="B2B1"/>
    <trip id="bus_47" depart="376.00" from="A2B2" to="B2B1"/>
    <trip id="bus_48" depart="384.00" from="A2B2" to="B2B1"/>
    <trip id="bus_49" depart="392.00" from="C2B2" to="B2B3"/>
    <trip id="bus_50" depart="400.00" from="C2B2" to="B2B3"/>
    <trip id="bus_51" depart="408.00" from="B1B2" to="B2A2"/>
    <trip id="bus_52" depart="416.00" from="B3B2" to="B2B1"/>
    <trip id="bus_53" depart="424.00" from="A2B2" to="B2B1"/>
    <trip id="bus_54" depart="432.00" from="C2B2" to="B2A2"/>
    <trip id="bus_55" depart="440.00" from="B3B2" to="B2B1"/>
    <trip id="bus_56" depart="448.00" from="B3B2" to="B2A2"/>
    <trip id="bus_57" depart="456.00" from="C2B2" to="B2B1"/>
    <trip id="bus_58" depart="464.00" from="B3B2" to="B2B1"/>
    <trip id="bus_59" depart="472.00" from="A2B2" to="B2B3"/>
    <trip id="bus_60" depart="480.00" from="A2B2" to="B2B3"/>
    <trip id="bus_61" depart="488.00" from="B3B2" to="B2C2"/>
    <trip id="bus_62" depart="496.00" from="A2B2" to="B2B1"/>
    <trip id="bus_63" depart="504.00" from="B1B2" to="B2B3"/>
    <trip id="bus_64" depart="512.00" from="B3B2" to="B2C2"/>
    <trip id="bus_65" depart="520.00" from="B3B2" to="B2B1"/>
    <trip id="bus_66" depart="528.00" from="B1B2" to="B2B3"/>
    <trip id="bus_67" depart="536.00" from="B1B2" to="B2A2"/>
    <trip id="bus_68" depart="544.00" from="B3B2" to="B2A2"/>
    <trip id="bus_69" depart="552.00" from="B3B2" to="B2B1"/>
    <trip id="bus_70" depart="560.00" from="B1B2" to="B2B3"/>
    <trip id="bus_71" depart="568.00" from="A2B2" to="B2C2"/>
    <trip id="bus_72" depart="576.00" from="C2B2" to="B2B3"/>
    <trip id="bus_73" depart="584.00" from="B1B2" to="B2B3"/>
    <trip id="bus_74" depart="592.00" from="B3B2" to="B2A2"/>
    <trip id="bus_75" depart="600.00" from="B1B2" to="B2B3"/>
    <trip id="bus_76" depart="608.00" from="C2B2" to="B2B1"/>
    <trip id="bus_77" depart="616.00" from="B3B2" to="B2C2"/>
    <trip id="bus_78" depart="624.00" from="B3B2" to="B2B1"/>
    <trip id="bus_79" depart="632.00" from="C2B2" to="B2B1"/>
    <trip id="bus_80" depart="640.00" from="A2B2" to="B2B3"/>
    <trip id="bus_81" depart="648.00" from="A2B2" to="B2B1"/>
    <trip id="bus_82" depart="656.00" from="C2B2" to="B2B3"/>
    <trip id="bus_83" depart="664.00" from="A2B2" to="B2B1"/>
    <trip id="bus_84" depart="672.00" from="A2B2" to="B2B3"/>
    <trip id="bus_85" depart="680.00" from="A2B2" to="B2B1"/>
    <trip id="bus_86" depart="688.00" from="B1B2" to="B2C2"/>
    <trip id="bus_87" depart="696.00" from="A2B2" to="B2C2"/>
    <trip id="bus_88" depart="704.00" from="A2B2" to="B2B3"/>
    <trip id="bus_89" depart="712.00" from="C2B2" to="B2B1"/>
    <trip id="bus_90" depart="720.00" from="A2B2" to="B2C2"/>
    <trip id="bus_91" depart="728.00" from="B3B2" to="B2C2"/>
    <trip id="bus_92" depart="736.00" from="B3B2" to="B2A2"/>
    <trip id="bus_93" depart="744.00" from="B3B2" to="B2C2"/>
    <trip id="bus_94" depart="752.00" from="B3B2" to="B2B1"/>
    <trip id="bus_95" depart="760.00" from="C2B2" to="B2B1"/>
    <trip id="bus_96" depart="768.00" from="B3B2" to="B2B1"/>
    <trip id="bus_97" depart="776.00" from="B1B2" to="B2A2"/>
    <trip id="bus_98" depart="784.00" from="B1B2" to="B2B3"/>
    <trip id="bus_99" depart="792.00" from="C2B2" to="B2B3"/>
    <trip id="bus_100" depart="800.00" from="C2B2" to="B2A2"/>
    <trip id="bus_101" depart="808.00" from="B1B2" to="B2C2"/>
    <trip id="bus_102" depart="816.00" from="A2B2" to="B2B1"/>
    <trip id="bus_103" depart="824.00" from="B3B2" to="B2A2"/>
    <trip id="bus_104" depart="832.00" from="B1B2" to="B2A2"/>
    <trip id="bus_105" depart="840.00" from="B1B2" to="B2B3"/>
    <trip id="bus_106" depart="848.00" from="A2B2" to="B2B3"/>
    <trip id="bus_107" depart="856.00" from="A2B2" to="B2B3"/>
    <trip id="bus_108" depart="864.00" from="B3B2" to="B2B1"/>
    <trip id="bus_109" depart="872.00" from="C2B2" to="B2B1"/>
    <trip id="bus_110" depart="880.00" from="B3B2" to="B2B1"/>
    <trip id="bus_111" depart="888.00" from="B3B2" to="B2A2"/>
    <trip id="bus_112" depart="896.00" from="B1B2" to="B2A2"/>
    <trip id="bus_113" depart="904.00" from="B3B2" to="B2C2"/>
    <trip id="bus_114" depart="912.00" from="A2B2" to="B2B3"/>
    <trip id="bus_115" depart="920.00" from="B3B2" to="B2C2"/>
    <trip id="bus_116" depart="928.00" from="B3B2" to="B2B1"/>
    <trip id="bus_117" depart="936.00" from="C2B2" to="B2B1"/>
    <trip id="bus_118" depart="944.00" from="A2B2" to="B2B3"/>
    <trip id="bus_119" depart="952.00" from="B1B2" to="B2B3"/>
    <trip id="bus_120" depart="960.00" from="C2B2" to="B2B3"/>
    <trip id="bus_121" depart="968.00" from="A2B2" to="B2B1"/>
    <trip id="bus_122" depart="976.00" from="B3B2" to="B2C2"/>
    <trip id="bus_123" depart="984.00" from="B3B2" to="B2C2"/>
    <trip id="bus_124" depart="992.00" from="A2B2" to="B2C2"/>
    <trip id="bus_125" depart="1000.00" from="A2B2" to="B2C2"/>
    <trip id="bus_126" depart="1008.00" from="C2B2" to="B2A2"/>
    <trip id="bus_127" depart="1016.00" from="A2B2" to="B2C2"/>
    <trip id="bus_128" depart="1024.00" from="A2B2" to="B2B3"/>
    <trip id="bus_129" depart="1032.00" from="B3B2" to="B2B1"/>
    <trip id="bus_130" depart="1040.00" from="A2B2" to="B2C2"/>
    <trip id="bus_131" depart="1048.00" from="B1B2" to="B2C2"/>
    <trip id="bus_132" depart="1056.00" from="B3B2" to="B2C2"/>
    <trip id="bus_133" depart="1064.00" from="B1B2" to="B2B3"/>
    <trip id="bus_134" depart="1072.00" from="B3B2" to="B2A2"/>
    <trip id="bus_135" depart="1080.00" from="A2B2" to="B2C2"/>
    <trip id="bus_136" depart="1088.00" from="A2B2" to="B2C2"/>
    <trip id="bus_137" depart="1096.00" from="C2B2" to="B2B1"/>
    <trip id="bus_138" depart="1104.00" from="B3B2" to="B2C2"/>
    <trip id="bus_139" depart="1112.00" from="C2B2" to="B2A2"/>
    <trip id="bus_140" depart="1120.00" from="A2B2" to="B2B1"/>
    <trip id="bus_141" depart="1128.00" from="A2B2" to="B2B3"/>
    <trip id="bus_142" depart="1136.00" from="C2B2" to="B2B1"/>
    <trip id="bus_143" depart="1144.00" from="B3B2" to="B2B1"/>
    <trip id="bus_144" depart="1152.00" from="B1B2" to="B2C2"/>
    <trip id="bus_145" depart="1160.00" from="B1B2" to="B2B3"/>
    <trip id="bus_146" depart="1168.00" from="B1B2" to="B2B3"/>
    <trip id="bus_147" depart="1176.00" from="C2B2" to="B2A2"/>
    <trip id="bus_148" depart="1184.00" from="C2B2" to="B2B1"/>
    <trip id="bus_149" depart="1192.00" from="B3B2" to="B2C2"/>
    <trip id="bus_150" depart="1200.00" from="B3B2" to="B2B1"/>
    <trip id="bus_151" depart="1208.00" from="C2B2" to="B2A2"/>
    <trip id="bus_152" depart="1216.00" from="B3B2" to="B2B1"/>
    <trip id="bus_153" depart="1224.00" from="B3B2" to="B2C2"/>
    <trip id="bus_154" depart="1232.00" from="C2B2" to="B2B3"/>
    <trip id="bus_155" depart="1240.00" from="B1B2" to="B2A2"/>
    <trip id="bus_156" depart="1248.00" from="B1B2" to="B2A2"/>
    <trip id="bus_157" depart="1256.00" from="B1B2" to="B2C2"/>
    <trip id="bus_158" depart="1264.00" from="A2B2" to="B2C2"/>
    <trip id="bus_159" depart="1272.00" from="B1B2" to="B2A2"/>
    <trip id="bus_160" depart="1280.00" from="B1B2" to="B2A2"/>
    <trip id="bus_161" depart="1288.00" from="B1B2" to="B2B3"/>
    <trip id="bus_162" depart="1296.00" from="C2B2" to="B2B1"/>
    <trip id="bus_163" depart="1304.00" from="A2B2" to="B2B3"/>
    <trip id="bus_164" depart="1312.00" from="C2B2" to="B2A2"/>
    <trip id="bus_165" depart="1320.00" from="C2B2" to="B2B3"/>
    <trip id="bus_166" depart="1328.00" from="B1B2" to="B2C2"/>
    <trip id="bus_167" depart="1336.00" from="B1B2" to="B2C2"/>
    <trip id="bus_168" depart="1344.00" from="C2B2" to="B2B3"/>
    <trip id="bus_169" depart="1352.00" from="B3B2" to="B2C2"/>
    <trip id="bus_170" depart="1360.00" from="B3B2" to="B2C2"/>
    <trip id="bus_171" depart="1368.00" from="B1B2" to="B2B3"/>
    <trip id="bus_172" depart="1376.00" from="B3B2" to="B2B1"/>
    <trip id="bus_173" depart="1384.00" from="B1B2" to="B2A2"/>
    <trip id="bus_174" depart="1392.00" from="C2B2" to="B2B1"/>
    <trip id="bus_175" depart="1400.00" from="B1B2" to="B2C2"/>
    <trip id="bus_176" depart="1408.00" from="A2B2" to="B2C2"/>
    <trip id="bus_177" depart="1416.00" from="C2B2" to="B2B1"/>
    <trip id="bus_178" depart="1424.00" from="B3B2" to="B2A2"/>
    <trip id="bus_179" depart="1432.00" from="C2B2" to="B2B1"/>
    <trip id="bus_180" depart="1440.00" from="B1B2" to="B2B3"/>
    <trip id="bus_181" depart="1448.00" from="A2B2" to="B2B1"/>
    <trip id="bus_182" depart="1456.00" from="C2B2" to="B2A2"/>
    <trip id="bus_183" depart="1464.00" from="B3B2" to="B2B1"/>
    <trip id="bus_184" depart="1472.00" from="B1B2" to="B2C2"/>
    <trip id="bus_185" depart="1480.00" from="C2B2" to="B2B1"/>
    <trip id="bus_186" depart="1488.00" from="C2B2" to="B2A2"/>
    <trip id="bus_187" depart="1496.00" from="B3B2" to="B2C2"/>
    <trip id="bus_188" depart="1504.00" from="B1B2" to="B2C2"/>
    <trip id="bus_189" depart="1512.00" from="B3B2" to="B2B1"/>
    <trip id="bus_190" depart="1520.00" from="C2B2" to="B2B1"/>
    <trip id="bus_191" depart="1528.00" from="B1B2" to="B2B3"/>
    <trip id="bus_192" depart="1536.00" from="B1B2" to="B2C2"/>
    <trip id="bus_193" depart="1544.00" from="B3B2" to="B2C2"/>
    <trip id="bus_194" depart="1552.00" from="B3B2" to="B2A2"/>
    <trip id="bus_195" depart="1560.00" from="A2B2" to="B2C2"/>
    <trip id="bus_196" depart="1568.00" from="A2B2" to="B2C2"/>
    <trip id="bus_197" depart="1576.00" from="B3B2" to="B2C2"/>
    <trip id="bus_198" depart="1584.00" from="A2B2" to="B2B1"/>
    <trip id="bus_199" depart="1592.00" from="C2B2" to="B2A2"/>
    <trip id="bus_200" depart="1600.00" from="A2B2" to="B2B1"/>
    <trip id="bus_201" depart="1608.00" from="B3B2" to="B2A2"/>
    <trip id="bus_202" depart="1616.00" from="C2B2" to="B2B3"/>
    <trip id="bus_203" depart="1624.00" from="A2B2" to="B2C2"/>
    <trip id="bus_204" depart="1632.00" from="A2B2" to="B2B1"/>
    <trip id="bus_205" depart="1640.00" from="B3B2" to="B2A2"/>
    <trip id="bus_206" depart="1648.00" from="B3B2" to="B2A2"/>
    <trip id="bus_207" depart="1656.00" from="A2B2" to="B2C2"/>
    <trip id="bus_208" depart="1664.00" from="C2B2" to="B2B3"/>
    <trip id="bus_209" depart="1672.00" from="B3B2" to="B2C2"/>
    <trip id="bus_210" depart="1680.00" from="A2B2" to="B2B1"/>
    <trip id="bus_211" depart="1688.00" from="B1B2" to="B2B3"/>
    <trip id="bus_212" depart="1696.00" from="C2B2" to="B2A2"/>
    <trip id="bus_213" depart="1704.00" from="A2B2" to="B2C2"/>
    <trip id="bus_214" depart="1712.00" from="B3B2" to="B2A2"/>
    <trip id="bus_215" depart="1720.00" from="B1B2" to="B2C2"/>
    <trip id="bus_216" depart="1728.00" from="C2B2" to="B2B3"/>
    <trip id="bus_217" depart="1736.00" from="A2B2" to="B2B3"/>
    <trip id="bus_218" depart="1744.00" from="A2B2" to="B2B3"/>
    <trip id="bus_219" depart="1752.00" from="B3B2" to="B2B1"/>
    <trip id="bus_220" depart="1760.00" from="A2B2" to="B2C2"/>
    <trip id="bus_221" depart="1768.00" from="B3B2" to="B2A2"/>
    <trip id="bus_222" depart="1776.00" from="A2B2" to="B2C2"/>
    <trip id="bus_223" depart="1784.00" from="A2B2" to="B2C2"/>
    <trip id="bus_224" depart="1792.00" from="B3B2" to="B2B1"/>
    <trip id="bus_225" depart="1800.00" from="C2B2" to="B2B3"/>
    <trip id="bus_226" depart="1808.00" from="B3B2" to="B2B1"/>
    <trip id="bus_227" depart="1816.00" from="B3B2" to="B2A2"/>
    <trip id="bus_228" depart="1824.00" from="B3B2" to="B2B1"/>
    <trip id="bus_229" depart="1832.00" from="C2B2" to="B2A2"/>
    <trip id="bus_230" depart="1840.00" from="B1B2" to="B2B3"/>
    <trip id="bus_231" depart="1848.00" from="B1B2" to="B2B3"/>
    <trip id="bus_232" depart="1856.00" from="C2B2" to="B2A2"/>
    <trip id="bus_233" depart="1864.00" from="C2B2" to="B2B3"/>
    <trip id="bus_234" depart="1872.00" from="C2B2" to="B2B1"/>
    <trip id="bus_235" depart="1880.00" from="A2B2" to="B2B1"/>
    <trip id="bus_236" depart="1888.00" from="A2B2" to="B2B1"/>
    <trip id="bus_237" depart="1896.00" from="B3B2" to="B2B1"/>
    <trip id="bus_238" depart="1904.00" from="A2B2" to="B2B3"/>
    <trip id="bus_239" depart="1912.00" from="C2B2" to="B2A2"/>
    <trip id="bus_240" depart="1920.00" from="C2B2" to="B2B3"/>
    <trip id="bus_241" depart="1928.00" from="B1B2" to="B2A2"/>
    <trip id="bus_242" depart="1936.00" from="C2B2" to="B2B1"/>
    <trip id="bus_243" depart="1944.00" from="A2B2" to="B2C2"/>
    <trip id="bus_244" depart="1952.00" from="A2B2" to="B2B1"/>
    <trip id="bus_245" depart="1960.00" from="B3B2" to="B2B1"/>
    <trip id="bus_246" depart="1968.00" from="C2B2" to="B2A2"/>
    <trip id="bus_247" depart="1976.00" from="B3B2" to="B2A2"/>
    <trip id="bus_248" depart="1984.00" from="A2B2" to="B2B3"/>
    <trip id="bus_249" depart="1992.00" from="B1B2" to="B2A2"/>
    <trip id="bus_250" depart="2000.00" from="B3B2" to="B2C2"/>
    <trip id="bus_251" depart="2008.00" from="B3B2" to="B2B1"/>
    <trip id="bus_252" depart="2016.00" from="A2B2" to="B2B1"/>
    <trip id="bus_253" depart="2024.00" from="A2B2" to="B2B3"/>
    <trip id="bus_254" depart="2032.00" from="C2B2" to="B2B3"/>
    <trip id="bus_255" depart="2040.00" from="A2B2" to="B2B3"/>
    <trip id="bus_256" depart="2048.00" from="A2B2" to="B2B3"/>
    <trip id="bus_257" depart="2056.00" from="C2B2" to="B2B1"/>
    <trip id="bus_258" depart="2064.00" from="B3B2" to="B2C2"/>
    <trip id="bus_259" depart="2072.00" from="A2B2" to="B2C2"/>
    <trip id="bus_260" depart="2080.00" from="B3B2" to="B2A2"/>
    <trip id="bus_261" depart="2088.00" from="B3B2" to="B2B1"/>
    <trip id="bus_262" depart="2096.00" from="B3B2" to="B2A2"/>
    <trip id="bus_263" depart="2104.00" from="C2B2" to="B2B3"/>
    <trip id="bus_264" depart="2112.00" from="B1B2" to="B2A2"/>
    <trip id="bus_265" depart="2120.00" from="A2B2" to="B2B1"/>
    <trip id="bus_266" depart="2128.00" from="B3B2" to="B2C2"/>
    <trip id="bus_267" depart="2136.00" from="A2B2" to="B2B3"/>
    <trip id="bus_268" depart="2144.00" from="A2B2" to="B2B3"/>
    <trip id="bus_269" depart="2152.00" from="B1B2" to="B2A2"/>
    <trip id="bus_270" depart="2160.00" from="B1B2" to="B2B3"/>
    <trip id="bus_271" depart="2168.00" from="B1B2" to="B2C2"/>
    <trip id="bus_272" depart="2176.00" from="C2B2" to="B2B3"/>
    <trip id="bus_273" depart="2184.00" from="A2B2" to="B2C2"/>
    <trip id="bus_274" depart="2192.00" from="B1B2" to="B2C2"/>
    <trip id="bus_275" depart="2200.00" from="B3B2" to="B2C2"/>
    <trip id="bus_276" depart="2208.00" from="C2B2" to="B2B3"/>
    <trip id="bus_277" depart="2216.00" from="C2B2" to="B2A2"/>
    <trip id="bus_278" depart="2224.00" from="B1B2" to="B2C2"/>
    <trip id="bus_279" depart="2232.00" from="A2B2" to="B2B3"/>
    <trip id="bus_280" depart="2240.00" from="C2B2" to="B2B3"/>
    <trip id="bus_281" depart="2248.00" from="C2B2" to="B2A2"/>
    <trip id="bus_282" depart="2256.00" from="C2B2" to="B2A2"/>
    <trip id="bus_283" depart="2264.00" from="A2B2" to="B2B3"/>
    <trip id="bus_284" depart="2272.00" from="B3B2" to="B2B1"/>
    <trip id="bus_285" depart="2280.00" from="C2B2" to="B2A2"/>
    <trip id="bus_286" depart="2288.00" from="A2B2" to="B2C2"/>
    <trip id="bus_287" depart="2296.00" from="C2B2" to="B2B1"/>
    <trip id="bus_288" depart="2304.00" from="C2B2" to="B2A2"/>
    <trip id="bus_289" depart="2312.00" from="B3B2" to="B2A2"/>
    <trip id="bus_290" depart="2320.00" from="A2B2" to="B2B1"/>
    <trip id="bus_291" depart="2328.00" from="B3B2" to="B2B1"/>
    <trip id="bus_292" depart="2336.00" from="B3B2" to="B2A2"/>
    <trip id="bus_293" depart="2344.00" from="B1B2" to="B2C2"/>
    <trip id="bus_294" depart="2352.00" from="A2B2" to="B2B1"/>
    <trip id="bus_295" depart="2360.00" from="C2B2" to="B2B3"/>
    <trip id="bus_296" depart="2368.00" from="B3B2" to="B2B1"/>
    <trip id="bus_297" depart="2376.00" from="B1B2" to="B2C2"/>
    <trip id="bus_298" depart="2384.00" from="C2B2" to="B2B3"/>
    <trip id="bus_299" depart="2392.00" from="A2B2" to="B2B3"/>
    <trip id="bus_300" depart="2400.00" from="A2B2" to="B2B1"/>
    <trip id="bus_301" depart="2408.00" from="A2B2" to="B2B3"/>
    <trip id="bus_302" depart="2416.00" from="C2B2" to="B2B3"/>
    <trip id="bus_303" depart="2424.00" from="B3B2" to="B2B1"/>
    <trip id="bus_304" depart="2432.00" from="A2B2" to="B2C2"/>
    <trip id="bus_305" depart="2440.00" from="B3B2" to="B2A2"/>
    <trip id="bus_306" depart="2448.00" from="B1B2" to="B2C2"/>
    <trip id="bus_307" depart="2456.00" from="C2B2" to="B2B3"/>
    <trip id="bus_308" depart="2464.00" from="A2B2" to="B2B3"/>
    <trip id="bus_309" depart="2472.00" from="B1B2" to="B2C2"/>
    <trip id="bus_310" depart="2480.00" from="B1B2" to="B2B3"/>
    <trip id="bus_311" depart="2488.00" from="B1B2" to="B2C2"/>
    <trip id="bus_312" depart="2496.00" from="C2B2" to="B2B1"/>
    <trip id="bus_313" depart="2504.00" from="B3B2" to="B2C2"/>
    <trip id="bus_314" depart="2512.00" from="C2B2" to="B2A2"/>
    <trip id="bus_315" depart="2520.00" from="B1B2" to="B2C2"/>
    <trip id="bus_316" depart="2528.00" from="C2B2" to="B2B1"/>
    <trip id="bus_317" depart="2536.00" from="B3B2" to="B2C2"/>
    <trip id="bus_318" depart="2544.00" from="B3B2" to="B2B1"/>
    <trip id="bus_319" depart="2552.00" from="C2B2" to="B2B1"/>
    <trip id="bus_320" depart="2560.00" from="A2B2" to="B2B3"/>
    <trip id="bus_321" depart="2568.00" from="B3B2" to="B2B1"/>
    <trip id="bus_322" depart="2576.00" from="B1B2" to="B2C2"/>
    <trip id="bus_323" depart="2584.00" from="C2B2" to="B2B1"/>
    <trip id="bus_324" depart="2592.00" from="C2B2" to="B2B3"/>
    <trip id="bus_325" depart="2600.00" from="B1B2" to="B2B3"/>
    <trip id="bus_326" depart="2608.00" from="B1B2" to="B2A2"/>
    <trip id="bus_327" depart="2616.00" from="B1B2" to="B2A2"/>
    <trip id="bus_328" depart="2624.00" from="C2B2" to="B2B1"/>
    <trip id="bus_329" depart="2632.00" from="A2B2" to="B2C2"/>
    <trip id="bus_330" depart="2640.00" from="B1B2" to="B2A2"/>
    <trip id="bus_331" depart="2648.00" from="B3B2" to="B2B1"/>
    <trip id="bus_332" depart="2656.00" from="C2B2" to="B2B1"/>
    <trip id="bus_333" depart="2664.00" from="A2B2" to="B2B1"/>
    <trip id="bus_334" depart="2672.00" from="B3B2" to="B2A2"/>
    <trip id="bus_335" depart="2680.00" from="C2B2" to="B2B3"/>
    <trip id="bus_336" depart="2688.00" from="B3B2" to="B2A2"/>
    <trip id="bus_337" depart="2696.00" from="B3B2" to="B2A2"/>
    <trip id="bus_338" depart="2704.00" from="B1B2" to="B2C2"/>
    <trip id="bus_339" depart="2712.00" from="A2B2" to="B2C2"/>
    <trip id="bus_340" depart="2720.00" from="C2B2" to="B2A2"/>
    <trip id="bus_341" depart="2728.00" from="A2B2" to="B2C2"/>
    <trip id="bus_342" depart="2736.00" from="B3B2" to="B2A2"/>
    <trip id="bus_343" depart="2744.00" from="B3B2" to="B2A2"/>
    <trip id="bus_344" depart="2752.00" from="C2B2" to="B2B3"/>
    <trip id="bus_345" depart="2760.00" from="B3B2" to="B2A2"/>
    <trip id="bus_346" depart="2768.00" from="B1B2" to="B2A2"/>
    <trip id="bus_347" depart="2776.00" from="A2B2" to="B2B3"/>
    <trip id="bus_348" depart="2784.00" from="B3B2" to="B2C2"/>
    <trip id="bus_349" depart="2792.00" from="B3B2" to="B2A2"/>
    <trip id="bus_350" depart="2800.00" from="A2B2" to="B2C2"/>
    <trip id="bus_351" depart="2808.00" from="B1B2" to="B2C2"/>
    <trip id="bus_352" depart="2816.00" from="A2B2" to="B2C2"/>
    <trip id="bus_353" depart="2824.00" from="B1B2" to="B2B3"/>
    <trip id="bus_354" depart="2832.00" from="B1B2" to="B2A2"/>
    <trip id="bus_355" depart="2840.00" from="C2B2" to="B2A2"/>
    <trip id="bus_356" depart="2848.00" from="B1B2" to="B2C2"/>
    <trip id="bus_357" depart="2856.00" from="B1B2" to="B2A2"/>
    <trip id="bus_358" depart="2864.00" from="C2B2" to="B2B3"/>
    <trip id="bus_359" depart="2872.00" from="C2B2" to="B2B1"/>
    <trip id="bus_360" depart="2880.00" from="A2B2" to="B2C2"/>
    <trip id="bus_361" depart="2888.00" from="A2B2" to="B2B1"/>
    <trip id="bus_362" depart="2896.00" from="A2B2" to="B2B3"/>
    <trip id="bus_363" depart="2904.00" from="B1B2" to="B2A2"/>
    <trip id="bus_364" depart="2912.00" from="A2B2" to="B2B1"/>
    <trip id="bus_365" depart="2920.00" from="C2B2" to="B2A2"/>
    <trip id="bus_366" depart="2928.00" from="A2B2" to="B2B3"/>
    <trip id="bus_367" depart="2936.00" from="B3B2" to="B2C2"/>
    <trip id="bus_368" depart="2944.00" from="B3B2" to="B2C2"/>
    <trip id="bus_369" depart="2952.00" from="A2B2" to="B2C2"/>
    <trip id="bus_370" depart="2960.00" from="A2B2" to="B2C2"/>
    <trip id="bus_371" depart="2968.00" from="B3B2" to="B2C2"/>
    <trip id="bus_372" depart="2976.00" from="B3B2" to="B2B1"/>
    <trip id="bus_373" depart="2984.00" from="C2B2" to="B2B3"/>
    <trip id="bus_374" depart="2992.00" from="A2B2" to="B2B3"/>
    <trip id="bus_375" depart="3000.00" from="A2B2" to="B2B3"/>
    <trip id="bus_376" depart="3008.00" from="C2B2" to="B2B3"/>
    <trip id="bus_377" depart="3016.00" from="A2B2" to="B2B3"/>
    <trip id="bus_378" depart="3024.00" from="C2B2" to="B2A2"/>
    <trip id="bus_379" depart="3032.00" from="B1B2" to="B2C2"/>
    <trip id="bus_380" depart="3040.00" from="A2B2" to="B2B1"/>
    <trip id="bus_381" depart="3048.00" from="B3B2" to="B2C2"/>
    <trip id="bus_382" depart="3056.00" from="B3B2" to="B2A2"/>
    <trip id="bus_383" depart="3064.00" from="C2B2" to="B2B3"/>
    <trip id="bus_384" depart="3072.00" from="C2B2" to="B2A2"/>
    <trip id="bus_385" depart="3080.00" from="B1B2" to="B2A2"/>
    <trip id="bus_386" depart="3088.00" from="A2B2" to="B2B1"/>
    <trip id="bus_387" depart="3096.00" from="B1B2" to="B2B3"/>
    <trip id="bus_388" depart="3104.00" from="C2B2" to="B2B1"/>
    <trip id="bus_389" depart="3112.00" from="C2B2" to="B2B3"/>
    <trip id="bus_390" depart="3120.00" from="B1B2" to="B2A2"/>
    <trip id="bus_391" depart="3128.00" from="C2B2" to="B2B3"/>
    <trip id="bus_392" depart="3136.00" from="A2B2" to="B2B3"/>
    <trip id="bus_393" depart="3144.00" from="C2B2" to="B2A2"/>
    <trip id="bus_394" depart="3152.00" from="B1B2" to="B2B3"/>
    <trip id="bus_395" depart="3160.00" from="C2B2" to="B2A2"/>
    <trip id="bus_396" depart="3168.00" from="C2B2" to="B2B3"/>
    <trip id="bus_397" depart="3176.00" from="A2B2" to="B2B3"/>
    <trip id="bus_398" depart="3184.00" from="B3B2" to="B2B1"/>
    <trip id="bus_399" depart="3192.00" from="B3B2" to="B2A2"/>
    <trip id="bus_400" depart="3200.00" from="B1B2" to="B2B3"/>
    <trip id="bus_401" depart="3208.00" from="B1B2" to="B2A2"/>
    <trip id="bus_402" depart="3216.00" from="A2B2" to="B2C2"/>
    <trip id="bus_403" depart="3224.00" from="A2B2" to="B2B1"/>
    <trip id="bus_404" depart="3232.00" from="B1B2" to="B2A2"/>
    <trip id="bus_405" depart="3240.00" from="B1B2" to="B2B3"/>
    <trip id="bus_406" depart="3248.00" from="C2B2" to="B2A2"/>
    <trip id="bus_407" depart="3256.00" from="A2B2" to="B2C2"/>
    <trip id="bus_408" depart="3264.00" from="A2B2" to="B2B1"/>
    <trip id="bus_409" depart="3272.00" from="A2B2" to="B2B3"/>
    <trip id="bus_410" depart="3280.00" from="C2B2" to="B2B1"/>
    <trip id="bus_411" depart="3288.00" from="C2B2" to="B2A2"/>
    <trip id="bus_412" depart="3296.00" from="C2B2" to="B2B1"/>
    <trip id="bus_413" depart="3304.00" from="B3B2" to="B2B1"/>
    <trip id="bus_414" depart="3312.00" from="B1B2" to="B2A2"/>
    <trip id="bus_415" depart="3320.00" from="C2B2" to="B2B3"/>
    <trip id="bus_416" depart="3328.00" from="B1B2" to="B2B3"/>
    <trip id="bus_417" depart="3336.00" from="C2B2" to="B2B3"/>
    <trip id="bus_418" depart="3344.00" from="C2B2" to="B2B1"/>
    <trip id="bus_419" depart="3352.00" from="B3B2" to="B2C2"/>
    <trip id="bus_420" depart="3360.00" from="C2B2" to="B2A2"/>
    <trip id="bus_421" depart="3368.00" from="B3B2" to="B2A2"/>
    <trip id="bus_422" depart="3376.00" from="C2B2" to="B2A2"/>
    <trip id="bus_423" depart="3384.00" from="B3B2" to="B2C2"/>
    <trip id="bus_424" depart="3392.00" from="B3B2" to="B2B1"/>
    <trip id="bus_425" depart="3400.00" from="C2B2" to="B2B3"/>
    <trip id="bus_426" depart="3408.00" from="C2B2" to="B2B3"/>
    <trip id="bus_427" depart="3416.00" from="C2B2" to="B2B3"/>
    <trip id="bus_428" depart="3424.00" from="B1B2" to="B2A2"/>
    <trip id="bus_429" depart="3432.00" from="B3B2" to="B2B1"/>
    <trip id="bus_430" depart="3440.00" from="C2B2" to="B2A2"/>
    <trip id="bus_431" depart="3448.00" from="C2B2" to="B2A2"/>
    <trip id="bus_432" depart="3456.00" from="C2B2" to="B2B3"/>
    <trip id="bus_433" depart="3464.00" from="B1B2" to="B2A2"/>
    <trip id="bus_434" depart="3472.00" from="A2B2" to="B2B1"/>
    <trip id="bus_435" depart="3480.00" from="C2B2" to="B2B1"/>
    <trip id="bus_436" depart="3488.00" from="B3B2" to="B2C2"/>
    <trip id="bus_437" depart="3496.00" from="A2B2" to="B2B1"/>
    <trip id="bus_438" depart="3504.00" from="B1B2" to="B2A2"/>
    <trip id="bus_439" depart="3512.00" from="B1B2" to="B2B3"/>
    <trip id="bus_440" depart="3520.00" from="A2B2" to="B2B3"/>
    <trip id="bus_441" depart="3528.00" from="B1B2" to="B2B3"/>
    <trip id="bus_442" depart="3536.00" from="A2B2" to="B2C2"/>
    <trip id="bus_443" depart="3544.00" from="B1B2" to="B2C2"/>
    <trip id="bus_444" depart="3552.00" from="C2B2" to="B2B3"/>
    <trip id="bus_445" depart="3560.00" from="A2B2" to="B2B1"/>
    <trip id="bus_446" depart="3568.00" from="C2B2" to="B2B3"/>
    <trip id="bus_447" depart="3576.00" from="C2B2" to="B2B1"/>
    <trip id="bus_448" depart="3584.00" from="A2B2" to="B2B3"/>
    <trip id="bus_449" depart="3592.00" from="C2B2" to="B2A2"/>
</routes>
