<?xml version="1.0" encoding="UTF-8"?>

<!-- generated on 2025-08-22 16:47:56 by Eclipse SUMO netedit Version 1.24.0
<neteditConfiguration xmlns:xsi="http://www.w3.org/2001/XMLSchema-instance" xsi:noNamespaceSchemaLocation="http://sumo.dlr.de/xsd/neteditConfiguration.xsd">

    <input>
        <sumo-net-file value="nets/single1l/single1l.net.xml"/>
    </input>

    <output>
        <output-file value="nets/single1l/single1l.net.xml"/>
    </output>

    <processing>
        <geometry.min-radius.fix.railways value="false"/>
        <geometry.avoid-overlap value="false"/>
        <geometry.max-grade.fix value="false"/>
        <offset.disable-normalization value="true"/>
        <lefthand value="0"/>
    </processing>

    <junctions>
        <no-internal-links value="false"/>
        <no-turnarounds value="true"/>
        <junctions.corner-detail value="5"/>
        <junctions.limit-turn-speed value="5.50"/>
        <rectangular-lane-cut value="0"/>
    </junctions>

    <pedestrian>
        <walkingareas value="1"/>
    </pedestrian>

</neteditConfiguration>
-->

<net version="1.20" junctionCornerDetail="5" walkingareas="true" limitTurnSpeed="5.50" avoidOverlap="0" xmlns:xsi="http://www.w3.org/2001/XMLSchema-instance" xsi:noNamespaceSchemaLocation="http://sumo.dlr.de/xsd/net_file.xsd">

    <location netOffset="0.00,0.00" convBoundary="0.00,250.00,500.00,750.00" origBoundary="0.00,0.00,750.00,750.00" projParameter="!"/>

    <edge id=":A2_0" function="internal">
        <lane id=":A2_0_0" index="0" speed="3.65" length="4.67" shape="0.00,501.60 -1.20,500.80 -1.60,500.00 -1.20,499.20 0.00,498.40"/>
    </edge>
    <edge id=":B1_0" function="internal">
        <lane id=":B1_0_0" index="0" speed="3.65" length="4.67" shape="248.40,250.00 249.20,248.80 250.00,248.40 250.80,248.80 251.60,250.00"/>
    </edge>
    <edge id=":B2_0" function="internal">
        <lane id=":B2_0_0" index="0" speed="6.51" length="9.03" shape="248.40,507.20 248.05,504.75 247.00,503.00 245.25,501.95 242.80,501.60"/>
    </edge>
    <edge id=":B2_1" function="internal">
        <lane id=":B2_1_0" index="0" speed="13.89" length="14.40" shape="248.40,507.20 248.40,492.80"/>
    </edge>
    <edge id=":B2_2" function="internal">
        <lane id=":B2_2_0" index="0" speed="8.00" length="4.07" shape="248.40,507.20 248.95,503.35 249.04,503.20"/>
    </edge>
    <edge id=":B2_3" function="internal">
        <lane id=":B2_3_0" index="0" disallow="all" speed="3.65" length="1.44" shape="248.40,507.20 249.20,506.00"/>
    </edge>
    <edge id=":B2_16" function="internal">
        <lane id=":B2_16_0" index="0" speed="8.00" length="10.13" shape="249.04,503.20 250.60,500.60 253.35,498.95 257.20,498.40"/>
    </edge>
    <edge id=":B2_17" function="internal">
        <lane id=":B2_17_0" index="0" disallow="all" speed="3.65" length="3.23" shape="249.20,506.00 250.00,505.60 250.80,506.00 251.60,507.20"/>
    </edge>
    <edge id=":B2_4" function="internal">
        <lane id=":B2_4_0" index="0" speed="6.51" length="9.03" shape="257.20,501.60 254.75,501.95 253.00,503.00 251.95,504.75 251.60,507.20"/>
    </edge>
    <edge id=":B2_5" function="internal">
        <lane id=":B2_5_0" index="0" speed="13.89" length="14.40" shape="257.20,501.60 242.80,501.60"/>
    </edge>
    <edge id=":B2_6" function="internal">
        <lane id=":B2_6_0" index="0" speed="8.00" length="4.07" shape="257.20,501.60 253.35,501.05 253.20,500.96"/>
    </edge>
    <edge id=":B2_7" function="internal">
        <lane id=":B2_7_0" index="0" disallow="all" speed="3.65" length="1.44" shape="257.20,501.60 256.00,500.80"/>
    </edge>
    <edge id=":B2_18" function="internal">
        <lane id=":B2_18_0" index="0" speed="8.00" length="10.13" shape="253.20,500.96 250.60,499.40 248.95,496.65 248.40,492.80"/>
    </edge>
    <edge id=":B2_19" function="internal">
        <lane id=":B2_19_0" index="0" disallow="all" speed="3.65" length="3.23" shape="256.00,500.80 255.60,500.00 256.00,499.20 257.20,498.40"/>
    </edge>
    <edge id=":B2_8" function="internal">
        <lane id=":B2_8_0" index="0" speed="6.51" length="9.03" shape="251.60,492.80 251.95,495.25 253.00,497.00 254.75,498.05 257.20,498.40"/>
    </edge>
    <edge id=":B2_9" function="internal">
        <lane id=":B2_9_0" index="0" speed="13.89" length="14.40" shape="251.60,492.80 251.60,507.20"/>
    </edge>
    <edge id=":B2_10" function="internal">
        <lane id=":B2_10_0" index="0" speed="8.00" length="4.07" shape="251.60,492.80 251.05,496.65 250.96,496.80"/>
    </edge>
    <edge id=":B2_11" function="internal">
        <lane id=":B2_11_0" index="0" disallow="all" speed="3.65" length="1.44" shape="251.60,492.80 250.80,494.00"/>
    </edge>
    <edge id=":B2_20" function="internal">
        <lane id=":B2_20_0" index="0" speed="8.00" length="10.13" shape="250.96,496.80 249.40,499.40 246.65,501.05 242.80,501.60"/>
    </edge>
    <edge id=":B2_21" function="internal">
        <lane id=":B2_21_0" index="0" disallow="all" speed="3.65" length="3.23" shape="250.80,494.00 250.00,494.40 249.20,494.00 248.40,492.80"/>
    </edge>
    <edge id=":B2_12" function="internal">
        <lane id=":B2_12_0" index="0" speed="6.51" length="9.03" shape="242.80,498.40 245.25,498.05 247.00,497.00 248.05,495.25 248.40,492.80"/>
    </edge>
    <edge id=":B2_13" function="internal">
        <lane id=":B2_13_0" index="0" speed="13.89" length="14.40" shape="242.80,498.40 257.20,498.40"/>
    </edge>
    <edge id=":B2_14" function="internal">
        <lane id=":B2_14_0" index="0" speed="8.00" length="4.07" shape="242.80,498.40 246.65,498.95 246.80,499.04"/>
    </edge>
    <edge id=":B2_15" function="internal">
        <lane id=":B2_15_0" index="0" disallow="all" speed="3.65" length="1.44" shape="242.80,498.40 244.00,499.20"/>
    </edge>
    <edge id=":B2_22" function="internal">
        <lane id=":B2_22_0" index="0" speed="8.00" length="10.13" shape="246.80,499.04 249.40,500.60 251.05,503.35 251.60,507.20"/>
    </edge>
    <edge id=":B2_23" function="internal">
        <lane id=":B2_23_0" index="0" disallow="all" speed="3.65" length="3.23" shape="244.00,499.20 244.40,500.00 244.00,500.80 242.80,501.60"/>
    </edge>
    <edge id=":B2_w0" function="walkingarea">
        <lane id=":B2_w0_0" index="0" allow="pedestrian" speed="2.78" length="10.51" width="6.40" shape="246.80,507.20 253.20,507.20 253.64,504.98 254.20,504.20 254.98,503.64 255.98,503.31 257.20,503.20 257.20,496.80 254.98,496.36 254.20,495.80 253.64,495.02 253.31,494.02 253.20,492.80 246.80,492.80 246.36,495.02 245.80,495.80 245.02,496.36 244.02,496.69 242.80,496.80 242.80,503.20 245.02,503.64 245.80,504.20 246.36,504.98 246.69,505.98"/>
    </edge>
    <edge id=":B3_0" function="internal">
        <lane id=":B3_0_0" index="0" speed="3.65" length="4.67" shape="251.60,750.00 250.80,751.20 250.00,751.60 249.20,751.20 248.40,750.00"/>
    </edge>
    <edge id=":C2_0" function="internal">
        <lane id=":C2_0_0" index="0" speed="3.65" length="4.67" shape="500.00,498.40 501.20,499.20 501.60,500.00 501.20,500.80 500.00,501.60"/>
    </edge>

    <edge id="A2B2" from="A2" to="B2" priority="-1">
        <lane id="A2B2_0" index="0" speed="13.89" length="242.80" shape="0.00,498.40 242.80,498.40"/>
    </edge>
    <edge id="B1B2" from="B1" to="B2" priority="-1">
        <lane id="B1B2_0" index="0" speed="13.89" length="242.80" shape="251.60,250.00 251.60,492.80"/>
    </edge>
    <edge id="B2A2" from="B2" to="A2" priority="-1">
        <lane id="B2A2_0" index="0" speed="13.89" length="242.80" shape="242.80,501.60 0.00,501.60"/>
    </edge>
    <edge id="B2B1" from="B2" to="B1" priority="-1">
        <lane id="B2B1_0" index="0" speed="13.89" length="242.80" shape="248.40,492.80 248.40,250.00"/>
    </edge>
    <edge id="B2B3" from="B2" to="B3" priority="-1">
        <lane id="B2B3_0" index="0" speed="13.89" length="242.80" shape="251.60,507.20 251.60,750.00"/>
    </edge>
    <edge id="B2C2" from="B2" to="C2" priority="-1">
        <lane id="B2C2_0" index="0" speed="13.89" length="242.80" shape="257.20,498.40 500.00,498.40"/>
    </edge>
    <edge id="B3B2" from="B3" to="B2" priority="-1">
        <lane id="B3B2_0" index="0" speed="13.89" length="242.80" shape="248.40,750.00 248.40,507.20"/>
    </edge>
    <edge id="C2B2" from="C2" to="B2" priority="-1">
        <lane id="C2B2_0" index="0" speed="13.89" length="242.80" shape="500.00,501.60 257.20,501.60"/>
    </edge>

    <tlLogic id="A2" type="static" programID="0" offset="0">
        <phase duration="82" state="G"/>
        <phase duration="3"  state="y"/>
        <phase duration="5"  state="r"/>
    </tlLogic>
    <tlLogic id="B1" type="static" programID="0" offset="0">
        <phase duration="82" state="G"/>
        <phase duration="3"  state="y"/>
        <phase duration="5"  state="r"/>
    </tlLogic>
    <tlLogic id="B2" type="static" programID="0" offset="0">
        <phase duration="42" state="GGggrrrrGGggrrrr"/>
        <phase duration="3"  state="yyyyrrrryyyyrrrr"/>
        <phase duration="42" state="rrrrGGggrrrrGGgg"/>
        <phase duration="3"  state="rrrryyyyrrrryyyy"/>
    </tlLogic>
    <tlLogic id="B3" type="static" programID="0" offset="0">
        <phase duration="82" state="G"/>
        <phase duration="3"  state="y"/>
        <phase duration="5"  state="r"/>
    </tlLogic>
    <tlLogic id="C2" type="static" programID="0" offset="0">
        <phase duration="82" state="G"/>
        <phase duration="3"  state="y"/>
        <phase duration="5"  state="r"/>
    </tlLogic>

    <junction id="A2" type="traffic_light" x="0.00" y="500.00" incLanes="B2A2_0" intLanes=":A2_0_0" shape="0.00,500.00 0.00,503.20 0.00,500.00">
        <request index="0" response="0" foes="0" cont="0"/>
    </junction>
    <junction id="B1" type="traffic_light" x="250.00" y="250.00" incLanes="B2B1_0" intLanes=":B1_0_0" shape="250.00,250.00 246.80,250.00 250.00,250.00">
        <request index="0" response="0" foes="0" cont="0"/>
    </junction>
    <junction id="B2" type="traffic_light" x="250.00" y="500.00" incLanes="B3B2_0 C2B2_0 B1B2_0 A2B2_0" intLanes=":B2_0_0 :B2_1_0 :B2_16_0 :B2_17_0 :B2_4_0 :B2_5_0 :B2_18_0 :B2_19_0 :B2_8_0 :B2_9_0 :B2_20_0 :B2_21_0 :B2_12_0 :B2_13_0 :B2_22_0 :B2_23_0" shape="246.80,507.20 253.20,507.20 253.64,504.98 254.20,504.20 254.98,503.64 255.98,503.31 257.20,503.20 257.20,496.80 254.98,496.36 254.20,495.80 253.64,495.02 253.31,494.02 253.20,492.80 246.80,492.80 246.36,495.02 245.80,495.80 245.02,496.36 244.02,496.69 242.80,496.80 242.80,503.20 245.02,503.64 245.80,504.20 246.36,504.98 246.69,505.98">
        <request index="0"  response="0000000000000000" foes="1000010000100000" cont="0"/>
        <request index="1"  response="0100000001000000" foes="0111110001100000" cont="0"/>
        <request index="2"  response="0100001101000000" foes="0110011111100000" cont="1"/>
        <request index="3"  response="0100001000010000" foes="0100001000010000" cont="1"/>
        <request index="4"  response="0000001000000000" foes="0100001000001000" cont="0"/>
        <request index="5"  response="0000011000000111" foes="1100011000000111" cont="0"/>
        <request index="6"  response="0011011000000110" foes="0111111000000110" cont="1"/>
        <request index="7"  response="0010000100000100" foes="0010000100000100" cont="1"/>
        <request index="8"  response="0000000000000000" foes="0010000010000100" cont="0"/>
        <request index="9"  response="0100000001000000" foes="0110000001111100" cont="0"/>
        <request index="10" response="0100000001000111" foes="1110000001100111" cont="1"/>
        <request index="11" response="0001000001000010" foes="0001000001000010" cont="1"/>
        <request index="12" response="0000000000000010" foes="0000100001000010" cont="0"/>
        <request index="13" response="0000011100000110" foes="0000011111000110" cont="0"/>
        <request index="14" response="0000011001110110" foes="0000011001111110" cont="1"/>
        <request index="15" response="0000010000100001" foes="0000010000100001" cont="1"/>
    </junction>
    <junction id="B3" type="traffic_light" x="250.00" y="750.00" incLanes="B2B3_0" intLanes=":B3_0_0" shape="250.00,750.00 253.20,750.00 250.00,750.00">
        <request index="0" response="0" foes="0" cont="0"/>
    </junction>
    <junction id="C2" type="traffic_light" x="500.00" y="500.00" incLanes="B2C2_0" intLanes=":C2_0_0" shape="500.00,500.00 500.00,496.80 500.00,500.00">
        <request index="0" response="0" foes="0" cont="0"/>
    </junction>

    <junction id=":B2_16_0" type="internal" x="249.04" y="503.20" incLanes=":B2_2_0 B1B2_0" intLanes=":B2_5_0 :B2_6_0 :B2_7_0 :B2_8_0 :B2_9_0 :B2_13_0 :B2_14_0"/>
    <junction id=":B2_17_0" type="internal" x="249.20" y="506.00" incLanes=":B2_3_0 A2B2_0 B1B2_0 C2B2_0" intLanes=":B2_4_0 :B2_9_0 :B2_14_0"/>
    <junction id=":B2_18_0" type="internal" x="253.20" y="500.96" incLanes=":B2_6_0 A2B2_0" intLanes=":B2_1_0 :B2_2_0 :B2_9_0 :B2_10_0 :B2_11_0 :B2_12_0 :B2_13_0"/>
    <junction id=":B2_19_0" type="internal" x="256.00" y="500.80" incLanes=":B2_7_0 A2B2_0 B1B2_0 B3B2_0" intLanes=":B2_2_0 :B2_8_0 :B2_13_0"/>
    <junction id=":B2_20_0" type="internal" x="250.96" y="496.80" incLanes=":B2_10_0 B3B2_0" intLanes=":B2_0_0 :B2_1_0 :B2_5_0 :B2_6_0 :B2_13_0 :B2_14_0 :B2_15_0"/>
    <junction id=":B2_21_0" type="internal" x="250.80" y="494.00" incLanes=":B2_11_0 A2B2_0 B3B2_0 C2B2_0" intLanes=":B2_1_0 :B2_6_0 :B2_12_0"/>
    <junction id=":B2_22_0" type="internal" x="246.80" y="499.04" incLanes=":B2_14_0 C2B2_0" intLanes=":B2_1_0 :B2_2_0 :B2_3_0 :B2_4_0 :B2_5_0 :B2_9_0 :B2_10_0"/>
    <junction id=":B2_23_0" type="internal" x="244.00" y="499.20" incLanes=":B2_15_0 B1B2_0 B3B2_0 C2B2_0" intLanes=":B2_0_0 :B2_5_0 :B2_10_0"/>

    <connection from="A2B2" to="B2B1" fromLane="0" toLane="0" via=":B2_12_0" tl="B2" linkIndex="12" dir="r" state="o"/>
    <connection from="A2B2" to="B2C2" fromLane="0" toLane="0" via=":B2_13_0" tl="B2" linkIndex="13" dir="s" state="o"/>
    <connection from="A2B2" to="B2B3" fromLane="0" toLane="0" via=":B2_14_0" tl="B2" linkIndex="14" dir="l" state="o"/>
    <connection from="A2B2" to="B2A2" fromLane="0" toLane="0" disallow="all" via=":B2_15_0" tl="B2" linkIndex="15" dir="t" state="o"/>
    <connection from="B1B2" to="B2C2" fromLane="0" toLane="0" via=":B2_8_0" tl="B2" linkIndex="8" dir="r" state="O"/>
    <connection from="B1B2" to="B2B3" fromLane="0" toLane="0" via=":B2_9_0" tl="B2" linkIndex="9" dir="s" state="O"/>
    <connection from="B1B2" to="B2A2" fromLane="0" toLane="0" via=":B2_10_0" tl="B2" linkIndex="10" dir="l" state="o"/>
    <connection from="B1B2" to="B2B1" fromLane="0" toLane="0" disallow="all" via=":B2_11_0" tl="B2" linkIndex="11" dir="t" state="o"/>
    <connection from="B2A2" to="A2B2" fromLane="0" toLane="0" via=":A2_0_0" tl="A2" linkIndex="0" dir="t" state="O"/>
    <connection from="B2B1" to="B1B2" fromLane="0" toLane="0" via=":B1_0_0" tl="B1" linkIndex="0" dir="t" state="O"/>
    <connection from="B2B3" to="B3B2" fromLane="0" toLane="0" via=":B3_0_0" tl="B3" linkIndex="0" dir="t" state="O"/>
    <connection from="B2C2" to="C2B2" fromLane="0" toLane="0" via=":C2_0_0" tl="C2" linkIndex="0" dir="t" state="O"/>
    <connection from="B3B2" to="B2A2" fromLane="0" toLane="0" via=":B2_0_0" tl="B2" linkIndex="0" dir="r" state="O"/>
    <connection from="B3B2" to="B2B1" fromLane="0" toLane="0" via=":B2_1_0" tl="B2" linkIndex="1" dir="s" state="O"/>
    <connection from="B3B2" to="B2C2" fromLane="0" toLane="0" via=":B2_2_0" tl="B2" linkIndex="2" dir="l" state="o"/>
    <connection from="B3B2" to="B2B3" fromLane="0" toLane="0" disallow="all" via=":B2_3_0" tl="B2" linkIndex="3" dir="t" state="o"/>
    <connection from="C2B2" to="B2B3" fromLane="0" toLane="0" via=":B2_4_0" tl="B2" linkIndex="4" dir="r" state="o"/>
    <connection from="C2B2" to="B2A2" fromLane="0" toLane="0" via=":B2_5_0" tl="B2" linkIndex="5" dir="s" state="o"/>
    <connection from="C2B2" to="B2B1" fromLane="0" toLane="0" via=":B2_6_0" tl="B2" linkIndex="6" dir="l" state="o"/>
    <connection from="C2B2" to="B2C2" fromLane="0" toLane="0" disallow="all" via=":B2_7_0" tl="B2" linkIndex="7" dir="t" state="o"/>

    <connection from=":A2_0" to="A2B2" fromLane="0" toLane="0" dir="t" state="M"/>
    <connection from=":B1_0" to="B1B2" fromLane="0" toLane="0" dir="t" state="M"/>
    <connection from=":B2_0" to="B2A2" fromLane="0" toLane="0" dir="r" state="M"/>
    <connection from=":B2_1" to="B2B1" fromLane="0" toLane="0" dir="s" state="M"/>
    <connection from=":B2_2" to="B2C2" fromLane="0" toLane="0" via=":B2_16_0" dir="l" state="m"/>
    <connection from=":B2_16" to="B2C2" fromLane="0" toLane="0" dir="l" state="M"/>
    <connection from=":B2_3" to="B2B3" fromLane="0" toLane="0" via=":B2_17_0" dir="t" state="m"/>
    <connection from=":B2_17" to="B2B3" fromLane="0" toLane="0" dir="t" state="M"/>
    <connection from=":B2_4" to="B2B3" fromLane="0" toLane="0" dir="r" state="M"/>
    <connection from=":B2_5" to="B2A2" fromLane="0" toLane="0" dir="s" state="M"/>
    <connection from=":B2_6" to="B2B1" fromLane="0" toLane="0" via=":B2_18_0" dir="l" state="m"/>
    <connection from=":B2_18" to="B2B1" fromLane="0" toLane="0" dir="l" state="M"/>
    <connection from=":B2_7" to="B2C2" fromLane="0" toLane="0" via=":B2_19_0" dir="t" state="m"/>
    <connection from=":B2_19" to="B2C2" fromLane="0" toLane="0" dir="t" state="M"/>
    <connection from=":B2_8" to="B2C2" fromLane="0" toLane="0" dir="r" state="M"/>
    <connection from=":B2_9" to="B2B3" fromLane="0" toLane="0" dir="s" state="M"/>
    <connection from=":B2_10" to="B2A2" fromLane="0" toLane="0" via=":B2_20_0" dir="l" state="m"/>
    <connection from=":B2_20" to="B2A2" fromLane="0" toLane="0" dir="l" state="M"/>
    <connection from=":B2_11" to="B2B1" fromLane="0" toLane="0" via=":B2_21_0" dir="t" state="m"/>
    <connection from=":B2_21" to="B2B1" fromLane="0" toLane="0" dir="t" state="M"/>
    <connection from=":B2_12" to="B2B1" fromLane="0" toLane="0" dir="r" state="M"/>
    <connection from=":B2_13" to="B2C2" fromLane="0" toLane="0" dir="s" state="M"/>
    <connection from=":B2_14" to="B2B3" fromLane="0" toLane="0" via=":B2_22_0" dir="l" state="m"/>
    <connection from=":B2_22" to="B2B3" fromLane="0" toLane="0" dir="l" state="M"/>
    <connection from=":B2_15" to="B2A2" fromLane="0" toLane="0" via=":B2_23_0" dir="t" state="m"/>
    <connection from=":B2_23" to="B2A2" fromLane="0" toLane="0" dir="t" state="M"/>
    <connection from=":B3_0" to="B3B2" fromLane="0" toLane="0" dir="t" state="M"/>
    <connection from=":C2_0" to="C2B2" fromLane="0" toLane="0" dir="t" state="M"/>

    <connection from=":B2_w0" to="B2B3" fromLane="0" toLane="0" dir="s" state="M"/>
    <connection from=":B2_w0" to="B2C2" fromLane="0" toLane="0" dir="s" state="M"/>
    <connection from=":B2_w0" to="B2B1" fromLane="0" toLane="0" dir="s" state="M"/>
    <connection from=":B2_w0" to="B2A2" fromLane="0" toLane="0" dir="s" state="M"/>
    <connection from="B3B2" to=":B2_w0" fromLane="0" toLane="0" dir="s" state="M"/>
    <connection from="C2B2" to=":B2_w0" fromLane="0" toLane="0" dir="s" state="M"/>
    <connection from="B1B2" to=":B2_w0" fromLane="0" toLane="0" dir="s" state="M"/>
    <connection from="A2B2" to=":B2_w0" fromLane="0" toLane="0" dir="s" state="M"/>
</net>
