<?xml version="1.0" encoding="UTF-8"?>
<routes xmlns:xsi="http://www.w3.org/2001/XMLSchema-instance" xsi:noNamespaceSchemaLocation="http://sumo.dlr.de/xsd/routes_file.xsd">

    <!-- Vehicle types -->
    <vType id="car" accel="2.6" decel="4.5" sigma="0.5" length="5" minGap="2.5" maxSpeed="55.55" guiShape="passenger"/>

    <!-- Routes -->
    <route id="route_ns" edges="2i 2o"/>
    <route id="route_sn" edges="1i 1o"/>
    <route id="route_ew" edges="1i 2o"/>
    <route id="route_we" edges="2i 1o"/>

    <!-- Traffic flows -->
    <flow id="flow_ns" route="route_ns" begin="0" end="3600" vehsPerHour="400" type="car"/>
    <flow id="flow_sn" route="route_sn" begin="0" end="3600" vehsPerHour="400" type="car"/>
    <flow id="flow_ew" route="route_ew" begin="0" end="3600" vehsPerHour="200" type="car"/>
    <flow id="flow_we" route="route_we" begin="0" end="3600" vehsPerHour="200" type="car"/>

</routes>